**************************************
*      Model Generated by MODPEX     *
*Copyright(c) Symmetry Design Systems*
*         All Rights Reserved        *
*    UNPUBLISHED LICENSED SOFTWARE   *
*   Contains Proprietary Information *
*      Which is The Property of      *
*     SYMMETRY OR ITS LICENSORS      *
*Commercial Use or Resale Restricted *
*   by Symmetry License Agreement    *
**************************************
* Model generated on Sep  3, 02
* MODEL FORMAT: PSpice
.MODEL Dmbr0530t1 d
+IS=2.97518e-06 RS=0.0849012 N=1.20139 EG=0.719332
+XTI=5e-09 BV=30 IBV=1e-05 CJO=1.91628e-10
+VJ=0.4 M=0.459526 FC=0.5 TT=1e-09
+KF=0 AF=1


