*SRC=B520C;DI_B520C;Diodes;Si;  20.0V  5.00A  5.00ns   Diodes Inc. Schottky 
.MODEL DI_B520C D  ( IS=617u RS=10.0m BV=20.0 IBV=500u 
+ CJO=497p  M=0.333 N=1.70 TT=7.20n )