*SRC=BC847CW;DI_BC847CW;BJTs NPN; Si;  45.0V  0.100A  300MHz   Diodes Inc
BJTs
.MODEL DI_BC847CW  NPN (IS=10.2f NF=1.00 BF=1.09k VAF=121
+ IKF=60.7m ISE=1.60p NE=2.00 BR=4.00 NR=1.00
+ VAR=24.0 IKR=0.150 RE=0.915 RB=3.66 RC=0.366
+ XTB=1.5 CJE=26.8p VJE=1.10 MJE=0.500 CJC=8.67p VJC=0.300 MJC=0.300 
+ TF=427p TR=48.6n EG=1.12 )