*SRC=SBR3U30P1;DI_SBR3U30P1;Diodes;Si;  30.0V  3.00A  12.0ns   Diodes INC Schottky rectifier
.MODEL DI_SBR3U30P1 D  ( IS=1.14m RS=11.7m BV=30.0 IBV=146u
+ CJO=951p  M=0.333 N=1.71 TT=17.3n)